8
lab0_2 example frame 0
C 0.996193306522 0.206804339565 0.520146896809
C 1.00992224449 1.12527272069 0.483555050007
C 0.6675591901 0.583581403086 1.68072451815
H 1.72834537296 1.6157455056 1.14223006904
N 0.801573387664 1.48812365086 1.60772107632
H 1.7540942509 0.695954454723 1.63609260182
H 1.76278517118 1.11523786444 0.819037284668
H 0.525077760107 1.7179406334 1.40415773364
